Input Parameters:
   integrator           = md
   nsteps               = 50000
   init_step            = 0
   ns_type              = Grid
   nstlist              = 5
   ndelta               = 2
   nstcomm              = 10
   comm_mode            = Linear
   nstlog               = 100
   nstxout              = 0
   nstvout              = 0
   nstfout              = 0
   nstcalcenergy        = 5
   nstenergy            = 5000
   nstxtcout            = 5000
   init_t               = 0
   delta_t              = 0.002
   xtcprec              = 1000
   nkx                  = 28
   nky                  = 28
   nkz                  = 144
   pme_order            = 4
   ewald_rtol           = 1e-05
   ewald_geometry       = 0
   epsilon_surface      = 0
   optimize_fft         = TRUE
   ePBC                 = xyz
   bPeriodicMols        = FALSE
   bContinuation        = FALSE
   bShakeSOR            = FALSE
   etc                  = Nose-Hoover
   nsttcouple           = 5
   epc                  = Parrinello-Rahman
   epctype              = Isotropic
   nstpcouple           = 5
   tau_p                = 1
   ref_p (3x3):
      ref_p[    0]={ 1.00000e+00,  0.00000e+00,  0.00000e+00}
      ref_p[    1]={ 0.00000e+00,  1.00000e+00,  0.00000e+00}
      ref_p[    2]={ 0.00000e+00,  0.00000e+00,  1.00000e+00}
   compress (3x3):
      compress[    0]={ 4.50000e-05,  0.00000e+00,  0.00000e+00}
      compress[    1]={ 0.00000e+00,  4.50000e-05,  0.00000e+00}
      compress[    2]={ 0.00000e+00,  0.00000e+00,  4.50000e-05}
   refcoord_scaling     = COM
   posres_com (3):
      posres_com[0]= 0.00000e+00
      posres_com[1]= 0.00000e+00
      posres_com[2]= 0.00000e+00
   posres_comB (3):
      posres_comB[0]= 0.00000e+00
      posres_comB[1]= 0.00000e+00
      posres_comB[2]= 0.00000e+00
   andersen_seed        = 815131
   rlist                = 1.4
   rlistlong            = 1.4
   rtpi                 = 0.05
   coulombtype          = PME
   rcoulomb_switch      = 0
   rcoulomb             = 1.4
   vdwtype              = Cut-off
   rvdw_switch          = 0
   rvdw                 = 1.4
   epsilon_r            = 1
   epsilon_rf           = 1
   tabext               = 1
   implicit_solvent     = No
   gb_algorithm         = Still
   gb_epsilon_solvent   = 80
   nstgbradii           = 1
   rgbradii             = 1
   gb_saltconc          = 0
   gb_obc_alpha         = 1
   gb_obc_beta          = 0.8
   gb_obc_gamma         = 4.85
   gb_dielectric_offset = 0.009
   sa_algorithm         = Ace-approximation
   sa_surface_tension   = 2.05016
   DispCorr             = EnerPres
   free_energy          = no
   init_lambda          = 0
   delta_lambda         = 0
   n_foreign_lambda     = 0
   sc_alpha             = 0
   sc_power             = 0
   sc_sigma             = 0.3
   sc_sigma_min         = 0.3
   nstdhdl              = 10
   separate_dhdl_file   = yes
   dhdl_derivatives     = yes
   dh_hist_size         = 0
   dh_hist_spacing      = 0.1
   nwall                = 0
   wall_type            = 9-3
   wall_atomtype[0]     = -1
   wall_atomtype[1]     = -1
   wall_density[0]      = 0
   wall_density[1]      = 0
   wall_ewald_zfac      = 3
   pull                 = umbrella
   pull_geometry        = distance
   pull_dim (3):
      pull_dim[0]=0
      pull_dim[1]=0
      pull_dim[2]=1
   pull_r1              = 1
   pull_r0              = 1.5
   pull_constr_tol      = 1e-06
   pull_nstxout         = 1000
   pull_nstfout         = 1000
   pull_ngrp            = 1
   pull_group 0:
     atom (10):
        atom[0,...,9] = {0,...,9}
     weight: not available
     pbcatom              = 4
     vec (3):
        vec[0]= 0.00000e+00
        vec[1]= 0.00000e+00
        vec[2]= 0.00000e+00
     init (3):
        init[0]= 0.00000e+00
        init[1]= 0.00000e+00
        init[2]= 0.00000e+00
     rate                 = 0
     k                    = 0
     kB                   = 0
   pull_group 1:
     atom (14):
        atom[0,...,13] = {151,...,164}
     weight: not available
     pbcatom              = 157
     vec (3):
        vec[0]= 0.00000e+00
        vec[1]= 0.00000e+00
        vec[2]= 0.00000e+00
     init (3):
        init[0]= 2.00421e+00
        init[1]=6.90365e-310
        init[2]=3.01380e-322
     rate                 = 0
     k                    = 500
     kB                   = 500
   disre                = No
   disre_weighting      = Conservative
   disre_mixed          = FALSE
   dr_fc                = 1000
   dr_tau               = 0
   nstdisreout          = 100
   orires_fc            = 0
   orires_tau           = 0
   nstorireout          = 100
   dihre-fc             = 1000
   em_stepsize          = 0.01
   em_tol               = 10
   niter                = 20
   fc_stepsize          = 0
   nstcgsteep           = 1000
   nbfgscorr            = 10
   ConstAlg             = Lincs
   shake_tol            = 0.0001
   lincs_order          = 4
   lincs_warnangle      = 30
   lincs_iter           = 1
   bd_fric              = 0
   ld_seed              = 1993
   cos_accel            = 0
   deform (3x3):
      deform[    0]={ 0.00000e+00,  0.00000e+00,  0.00000e+00}
      deform[    1]={ 0.00000e+00,  0.00000e+00,  0.00000e+00}
      deform[    2]={ 0.00000e+00,  0.00000e+00,  0.00000e+00}
   userint1             = 0
   userint2             = 0
   userint3             = 0
   userint4             = 0
   userreal1            = 0
   userreal2            = 0
   userreal3            = 0
   userreal4            = 0
grpopts:
   nrdf:     322.966       28458
   ref_t:         310         310
   tau_t:         0.5         0.5
anneal:          No          No
ann_npoints:           0           0
   acc:	           0           0           0
   nfreeze:           N           N           N
   energygrp_flags[  0]: 0
   efield-x:
      n = 0
   efield-xt:
      n = 0
   efield-y:
      n = 0
   efield-yt:
      n = 0
   efield-z:
      n = 0
   efield-zt:
      n = 0
   bQMMM                = FALSE
   QMconstraints        = 0
   QMMMscheme           = 0
   scalefactor          = 1
qm_opts:
   ngQM                 = 0

Initializing Domain Decomposition on 4 nodes
Dynamic load balancing: auto
Will sort the charge groups at every domain (re)decomposition
Initial maximum inter charge-group distances:
    two-body bonded interactions: 0.554 nm, LJ-14, atoms 155 158
  multi-body bonded interactions: 0.554 nm, Proper Dih., atoms 155 158
Minimum cell size due to bonded interactions: 0.609 nm
Maximum distance for 5 constraints, at 120 deg. angles, all-trans: 0.765 nm
Estimated maximum distance required for P-LINCS: 0.765 nm
This distance will limit the DD cell size, you can override this with -rcon
Using 0 separate PME nodes, as there are too few total
 nodes for efficient splitting
Scaling the initial minimum size with 1/0.8 (option -dds) = 1.25
Optimizing the DD grid for 4 cells with a minimum initial size of 0.956 nm
The maximum allowed number of cells is: X 3 Y 3 Z 16
Domain decomposition grid 1 x 1 x 4, separate PME nodes 0
PME domain decomposition: 4 x 1 x 1
Domain decomposition nodeid 0, coordinates 0 0 0

Table routines are used for coulomb: TRUE
Table routines are used for vdw:     FALSE
Will do PME sum in reciprocal space.

Will do ordinary reciprocal space Ewald sum.
Using a Gaussian width (1/beta) of 0.448228 nm for Ewald
Cut-off's:   NS: 1.4   Coulomb: 1.4   LJ: 1.4
Long Range LJ corr.: <C6> 3.0288e-04
System total charge: 0.000
Generated table with 4800 data points for Ewald.
Tabscale = 2000 points/nm
Generated table with 4800 data points for LJ6.
Tabscale = 2000 points/nm
Generated table with 4800 data points for LJ12.
Tabscale = 2000 points/nm
Generated table with 4800 data points for 1-4 COUL.
Tabscale = 2000 points/nm
Generated table with 4800 data points for 1-4 LJ6.
Tabscale = 2000 points/nm
Generated table with 4800 data points for 1-4 LJ12.
Tabscale = 2000 points/nm

Enabling SPC-like water optimization for 4734 molecules.

Configuring nonbonded kernels...
Configuring standard C nonbonded kernels...
Testing x86_64 SSE2 support... present.

Removing pbc first time

Will apply umbrella COM pulling in geometry 'distance'
between a reference group and 1 group
Pull group 0:    10 atoms, mass    89.094
Pull group 1:    14 atoms, mass   145.182

Initializing Parallel LINear Constraint Solver

The number of constraints is 172
There are inter charge-group constraints,
will communicate selected coordinates each lincs iteration

Linking all bonded interactions to atoms
There are 576 inter charge-group exclusions,
will use an extra communication step for exclusion forces for PME

The initial number of communication pulses is: Z 1
The initial domain decomposition cell size is: Z 4.00 nm

The maximum allowed distance for charge groups involved in interactions is:
                 non-bonded interactions           1.400 nm
(the following are initial values, they could change due to box deformation)
            two-body bonded interactions  (-rdd)   1.400 nm
          multi-body bonded interactions  (-rdd)   1.400 nm
  atoms separated by up to 5 constraints  (-rcon)  3.003 nm

When dynamic load balancing gets turned on, these settings will change to:
The maximum number of communication pulses is: Z 1
The minimum size for domain decomposition cells is 1.400 nm
The requested allowed shrink of DD cells (option -dds) is: 0.80
The allowed shrink of domain decomposition cells is: Z 0.35
The maximum allowed distance for charge groups involved in interactions is:
                 non-bonded interactions           1.400 nm
            two-body bonded interactions  (-rdd)   1.400 nm
          multi-body bonded interactions  (-rdd)   1.400 nm
  atoms separated by up to 5 constraints  (-rcon)  1.400 nm

Making 1D domain decomposition grid 1 x 1 x 4, home cell index 0 0 0

Center of mass motion removal mode is Linear
We have the following groups for center of mass motion removal:
  0:  rest
There are: 14386 Atoms
Charge group distribution at step 0: 1211 1206 1204 1199
Grid: 4 x 4 x 9 cells

Constraining the starting coordinates (step 0)

Constraining the coordinates at t0-dt (step 0)
RMS relative constraint deviation after constraining: 0.00e+00
Initial temperature: 300.508 K

Started mdrun on node 0 Fri Jun 19 16:01:21 2015

           Step           Time         Lambda
              0        0.00000        0.00000

   Energies (kJ/mol)
       G96Angle    Proper Dih.  Improper Dih.          LJ-14     Coulomb-14
    2.26679e+02    6.42882e+01    1.03242e+02   -7.38729e+00    1.81570e+03
        LJ (SR)  Disper. corr.   Coulomb (SR)   Coul. recip.   COM Pull En.
    4.15023e+04   -3.31184e+02   -2.59967e+05   -1.20593e+04    3.13936e-07
      Potential    Kinetic En.   Total Energy    Temperature Pres. DC (bar)
   -2.28653e+05    3.64897e+04   -1.92163e+05    3.04970e+02   -7.61366e+01
    1.59109e+02    1.47548e-05

	<====  A V E R A G E S  ====>

	Statistics over 50001 steps using 10001 frames

   Energies (kJ/mol)
       G96Angle    Proper Dih.  Improper Dih.          LJ-14     Coulomb-14
    2.49078e+02    8.45500e+01    1.03165e+02   -1.26895e+01    1.78370e+03
        LJ (SR)  Disper. corr.   Coulomb (SR)   Coul. recip.   COM Pull En.
    4.11060e+04   -3.30184e+02   -2.59248e+05   -1.20812e+04    3.01763e+00
      Potential    Kinetic En.   Total Energy    Temperature Pres. DC (bar)
   -2.28342e+05    3.70917e+04   -1.91251e+05    3.10002e+02   -7.56787e+01
 Pressure (bar)   Constr. rmsd
   -2.32896e+00    0.00000e+00

          Box-X          Box-Y          Box-Z
    3.00625e+00    3.00625e+00    1.60333e+01

   Total Virial (kJ/mol)
    1.23682e+04    2.40470e+01   -4.09291e+01
    2.40470e+01    1.23612e+04    2.36351e+01
   -4.09291e+01    2.36351e+01    1.23979e+04

   Pressure (bar)
   -5.21174e-01   -7.35809e+00    9.00442e+00
   -7.35809e+00    3.07629e+00   -4.57483e+00
    9.00442e+00   -4.57483e+00   -9.54199e+00

   Total Dipole (D)
    1.00076e+02   -2.06701e+02    2.46244e+02

      T-Protein  T-non-Protein
    3.10049e+02    3.10002e+02
