Input Parameters:
   integrator           = md
   nsteps               = 50000
   init_step            = 0
   ns_type              = Grid
   nstlist              = 5
   ndelta               = 2
   nstcomm              = 10
   comm_mode            = Linear
   nstlog               = 100
   nstxout              = 0
   nstvout              = 0
   nstfout              = 0
   nstcalcenergy        = 5
   nstenergy            = 5000
   nstxtcout            = 5000
   init_t               = 0
   delta_t              = 0.002
   xtcprec              = 1000
   nkx                  = 28
   nky                  = 28
   nkz                  = 72
   pme_order            = 4
   ewald_rtol           = 1e-05
   ewald_geometry       = 0
   epsilon_surface      = 0
   optimize_fft         = TRUE
   ePBC                 = xyz
   bPeriodicMols        = FALSE
   bContinuation        = FALSE
   bShakeSOR            = FALSE
   etc                  = Nose-Hoover
   nsttcouple           = 5
   epc                  = Parrinello-Rahman
   epctype              = Isotropic
   nstpcouple           = 5
   tau_p                = 1
   ref_p (3x3):
      ref_p[    0]={ 1.00000e+00,  0.00000e+00,  0.00000e+00}
      ref_p[    1]={ 0.00000e+00,  1.00000e+00,  0.00000e+00}
      ref_p[    2]={ 0.00000e+00,  0.00000e+00,  1.00000e+00}
   compress (3x3):
      compress[    0]={ 4.50000e-05,  0.00000e+00,  0.00000e+00}
      compress[    1]={ 0.00000e+00,  4.50000e-05,  0.00000e+00}
      compress[    2]={ 0.00000e+00,  0.00000e+00,  4.50000e-05}
   refcoord_scaling     = COM
   posres_com (3):
      posres_com[0]= 0.00000e+00
      posres_com[1]= 0.00000e+00
      posres_com[2]= 0.00000e+00
   posres_comB (3):
      posres_comB[0]= 0.00000e+00
      posres_comB[1]= 0.00000e+00
      posres_comB[2]= 0.00000e+00
   andersen_seed        = 815131
   rlist                = 1.4
   rlistlong            = 1.4
   rtpi                 = 0.05
   coulombtype          = PME
   rcoulomb_switch      = 0
   rcoulomb             = 1.4
   vdwtype              = Cut-off
   rvdw_switch          = 0
   rvdw                 = 1.4
   epsilon_r            = 1
   epsilon_rf           = 1
   tabext               = 1
   implicit_solvent     = No
   gb_algorithm         = Still
   gb_epsilon_solvent   = 80
   nstgbradii           = 1
   rgbradii             = 1
   gb_saltconc          = 0
   gb_obc_alpha         = 1
   gb_obc_beta          = 0.8
   gb_obc_gamma         = 4.85
   gb_dielectric_offset = 0.009
   sa_algorithm         = Ace-approximation
   sa_surface_tension   = 2.05016
   DispCorr             = EnerPres
   free_energy          = no
   init_lambda          = 0
   delta_lambda         = 0
   n_foreign_lambda     = 0
   sc_alpha             = 0
   sc_power             = 0
   sc_sigma             = 0.3
   sc_sigma_min         = 0.3
   nstdhdl              = 10
   separate_dhdl_file   = yes
   dhdl_derivatives     = yes
   dh_hist_size         = 0
   dh_hist_spacing      = 0.1
   nwall                = 0
   wall_type            = 9-3
   wall_atomtype[0]     = -1
   wall_atomtype[1]     = -1
   wall_density[0]      = 0
   wall_density[1]      = 0
   wall_ewald_zfac      = 3
   pull                 = umbrella
   pull_geometry        = distance
   pull_dim (3):
      pull_dim[0]=0
      pull_dim[1]=0
      pull_dim[2]=1
   pull_r1              = 1
   pull_r0              = 1.5
   pull_constr_tol      = 1e-06
   pull_nstxout         = 1000
   pull_nstfout         = 1000
   pull_ngrp            = 1
   pull_group 0:
     atom (11):
        atom[0,...,10] = {0,...,10}
     weight: not available
     pbcatom              = 5
     vec (3):
        vec[0]= 0.00000e+00
        vec[1]= 0.00000e+00
        vec[2]= 0.00000e+00
     init (3):
        init[0]= 0.00000e+00
        init[1]= 0.00000e+00
        init[2]= 0.00000e+00
     rate                 = 0
     k                    = 0
     kB                   = 0
   pull_group 1:
     atom (9):
        atom[0,...,8] = {146,...,154}
     weight: not available
     pbcatom              = 150
     vec (3):
        vec[0]= 0.00000e+00
        vec[1]= 0.00000e+00
        vec[2]= 0.00000e+00
     init (3):
        init[0]= 2.75174e+00
        init[1]= 3.00203e+00
        init[2]= 3.00203e+00
     rate                 = 0
     k                    = 500
     kB                   = 500
   disre                = No
   disre_weighting      = Conservative
   disre_mixed          = FALSE
   dr_fc                = 1000
   dr_tau               = 0
   nstdisreout          = 100
   orires_fc            = 0
   orires_tau           = 0
   nstorireout          = 100
   dihre-fc             = 1000
   em_stepsize          = 0.01
   em_tol               = 10
   niter                = 20
   fc_stepsize          = 0
   nstcgsteep           = 1000
   nbfgscorr            = 10
   ConstAlg             = Lincs
   shake_tol            = 0.0001
   lincs_order          = 4
   lincs_warnangle      = 30
   lincs_iter           = 1
   bd_fric              = 0
   ld_seed              = 1993
   cos_accel            = 0
   deform (3x3):
      deform[    0]={ 0.00000e+00,  0.00000e+00,  0.00000e+00}
      deform[    1]={ 0.00000e+00,  0.00000e+00,  0.00000e+00}
      deform[    2]={ 0.00000e+00,  0.00000e+00,  0.00000e+00}
   userint1             = 0
   userint2             = 0
   userint3             = 0
   userint4             = 0
   userreal1            = 0
   userreal2            = 0
   userreal3            = 0
   userreal4            = 0
grpopts:
   nrdf:     307.936     14025.1
   ref_t:         310         310
   tau_t:         0.5         0.5
anneal:          No          No
ann_npoints:           0           0
   acc:	           0           0           0
   nfreeze:           N           N           N
   energygrp_flags[  0]: 0
   efield-x:
      n = 0
   efield-xt:
      n = 0
   efield-y:
      n = 0
   efield-yt:
      n = 0
   efield-z:
      n = 0
   efield-zt:
      n = 0
   bQMMM                = FALSE
   QMconstraints        = 0
   QMMMscheme           = 0
   scalefactor          = 1
qm_opts:
   ngQM                 = 0

Initializing Domain Decomposition on 8 nodes
Dynamic load balancing: auto
Will sort the charge groups at every domain (re)decomposition
Initial maximum inter charge-group distances:
    two-body bonded interactions: 0.588 nm, LJ-14, atoms 72 84
  multi-body bonded interactions: 0.588 nm, Proper Dih., atoms 72 84
Minimum cell size due to bonded interactions: 0.647 nm
Maximum distance for 5 constraints, at 120 deg. angles, all-trans: 0.765 nm
Estimated maximum distance required for P-LINCS: 0.765 nm
This distance will limit the DD cell size, you can override this with -rcon
Using 0 separate PME nodes
Scaling the initial minimum size with 1/0.8 (option -dds) = 1.25
Optimizing the DD grid for 8 cells with a minimum initial size of 0.956 nm
The maximum allowed number of cells is: X 3 Y 3 Z 8
Domain decomposition grid 1 x 1 x 8, separate PME nodes 0
PME domain decomposition: 8 x 1 x 1
Domain decomposition nodeid 0, coordinates 0 0 0

Table routines are used for coulomb: TRUE
Table routines are used for vdw:     FALSE
Will do PME sum in reciprocal space.

Will do ordinary reciprocal space Ewald sum.
Using a Gaussian width (1/beta) of 0.448228 nm for Ewald
Cut-off's:   NS: 1.4   Coulomb: 1.4   LJ: 1.4
Long Range LJ corr.: <C6> 3.1355e-04
System total charge: 0.000
Generated table with 4800 data points for Ewald.
Tabscale = 2000 points/nm
Generated table with 4800 data points for LJ6.
Tabscale = 2000 points/nm
Generated table with 4800 data points for LJ12.
Tabscale = 2000 points/nm
Generated table with 4800 data points for 1-4 COUL.
Tabscale = 2000 points/nm
Generated table with 4800 data points for 1-4 LJ6.
Tabscale = 2000 points/nm
Generated table with 4800 data points for 1-4 LJ12.
Tabscale = 2000 points/nm

Enabling SPC-like water optimization for 2334 molecules.

Configuring nonbonded kernels...
Configuring standard C nonbonded kernels...
Testing x86_64 SSE2 support... present.

Removing pbc first time

Will apply umbrella COM pulling in geometry 'distance'
between a reference group and 1 group
Pull group 0:    11 atoms, mass   115.176
Pull group 1:     9 atoms, mass   103.078

Initializing Parallel LINear Constraint Solver

The number of constraints is 157
There are inter charge-group constraints,
will communicate selected coordinates each lincs iteration

Linking all bonded interactions to atoms
There are 514 inter charge-group exclusions,
will use an extra communication step for exclusion forces for PME

The initial number of communication pulses is: Z 2
The initial domain decomposition cell size is: Z 1.00 nm

The maximum allowed distance for charge groups involved in interactions is:
                 non-bonded interactions           1.400 nm
(the following are initial values, they could change due to box deformation)
            two-body bonded interactions  (-rdd)   1.400 nm
          multi-body bonded interactions  (-rdd)   1.001 nm
  atoms separated by up to 5 constraints  (-rcon)  1.001 nm

When dynamic load balancing gets turned on, these settings will change to:
The maximum number of communication pulses is: Z 2
The minimum size for domain decomposition cells is 0.795 nm
The requested allowed shrink of DD cells (option -dds) is: 0.80
The allowed shrink of domain decomposition cells is: Z 0.79
The maximum allowed distance for charge groups involved in interactions is:
                 non-bonded interactions           1.400 nm
            two-body bonded interactions  (-rdd)   1.400 nm
          multi-body bonded interactions  (-rdd)   0.795 nm
  atoms separated by up to 5 constraints  (-rcon)  0.795 nm

Making 1D domain decomposition grid 1 x 1 x 8, home cell index 0 0 0

Center of mass motion removal mode is Linear
We have the following groups for center of mass motion removal:
  0:  rest
There are: 7165 Atoms
Charge group distribution at step 0: 296 315 307 301 290 295 296 303
Grid: 4 x 4 x 5 cells

Constraining the starting coordinates (step 0)

Constraining the coordinates at t0-dt (step 0)
RMS relative constraint deviation after constraining: 0.00e+00
Initial temperature: 300.624 K

Started mdrun on node 0 Wed Jun 17 10:38:31 2015

           Step           Time         Lambda
              0        0.00000        0.00000

   Energies (kJ/mol)
       G96Angle    Proper Dih.  Improper Dih.          LJ-14     Coulomb-14
    2.50053e+02    9.30080e+01    1.13233e+02    5.27613e+00    1.33627e+03
        LJ (SR)  Disper. corr.   Coulomb (SR)   Coul. recip.   COM Pull En.
    2.06698e+04   -1.70292e+02   -1.30063e+05   -6.92603e+03    5.70688e-08
      Potential    Kinetic En.   Total Energy    Temperature Pres. DC (bar)
   -1.14692e+05    1.81762e+04   -9.65158e+04    3.05042e+02   -7.83898e+01
    1.82860e+02    2.19576e-05

	<====  A V E R A G E S  ====>

	Statistics over 50001 steps using 10001 frames

   Energies (kJ/mol)
       G96Angle    Proper Dih.  Improper Dih.          LJ-14     Coulomb-14
    2.63176e+02    9.06962e+01    8.32259e+01   -1.31237e+01    1.37500e+03
        LJ (SR)  Disper. corr.   Coulomb (SR)   Coul. recip.   COM Pull En.
    2.00428e+04   -1.69703e+02   -1.28591e+05   -6.92292e+03    4.49931e+00
      Potential    Kinetic En.   Total Energy    Temperature Pres. DC (bar)
   -1.13838e+05    1.84716e+04   -9.53661e+04    3.09999e+02   -7.78506e+01
 Pressure (bar)   Constr. rmsd
   -1.43693e+00    0.00000e+00

          Box-X          Box-Y          Box-Z
    3.00552e+00    3.00552e+00    8.01471e+00

   Total Virial (kJ/mol)
    6.16148e+03    4.41881e+00   -7.84910e+00
    4.41881e+00    6.16051e+03    3.82719e+00
   -7.84910e+00    3.82719e+00    6.16404e+03

   Pressure (bar)
    1.02466e+00   -1.64476e+00    2.54095e+00
   -1.64476e+00    3.04375e+00   -9.54140e-01
    2.54095e+00   -9.54140e-01   -8.37921e+00

   Total Dipole (D)
    1.63352e+02   -1.55298e+02    2.30171e+02

      T-Protein  T-non-Protein
    3.09926e+02    3.10001e+02
